Version 4
SHEET 1 1256 680
WIRE -96 -112 -128 -112
WIRE 0 -112 -16 -112
WIRE 608 -112 416 -112
WIRE 816 -112 608 -112
WIRE 1056 -112 816 -112
WIRE 1056 -80 1056 -112
WIRE 416 -64 416 -112
WIRE 480 -64 464 -64
WIRE 608 -64 608 -112
WIRE 672 -64 656 -64
WIRE 816 -64 816 -112
WIRE 880 -64 864 -64
WIRE -128 -32 -128 -112
WIRE 64 -32 32 -32
WIRE 160 -32 144 -32
WIRE 416 16 416 0
WIRE 608 16 608 0
WIRE 816 16 816 0
WIRE 1056 32 1056 0
WIRE 32 48 32 -32
WIRE 224 48 208 48
WIRE 320 48 304 48
WIRE -128 64 -128 48
WIRE 208 128 208 48
WIRE 32 144 32 128
WIRE 816 144 816 128
WIRE 608 176 608 160
WIRE 416 208 416 192
WIRE 208 224 208 208
FLAG -128 64 0
FLAG 32 144 0
FLAG 208 224 0
FLAG 0 -112 A
IOPIN 0 -112 Out
FLAG 160 -32 B
IOPIN 160 -32 Out
FLAG 320 48 C
IOPIN 320 48 Out
FLAG 416 16 A
IOPIN 416 16 In
FLAG 608 16 B
IOPIN 608 16 In
FLAG 816 16 C
IOPIN 816 16 In
FLAG 1056 32 0
FLAG 416 288 0
FLAG 416 192 Ga
IOPIN 416 192 Out
FLAG 480 -64 Ga
IOPIN 480 -64 In
FLAG 672 -64 Gb
IOPIN 672 -64 In
FLAG 880 -64 Gc
IOPIN 880 -64 In
FLAG 608 256 0
FLAG 608 160 Gb
IOPIN 608 160 Out
FLAG 816 224 0
FLAG 816 128 Gc
IOPIN 816 128 Out
SYMBOL voltage -128 -48 R0
WINDOW 3 24 96 Left 0
WINDOW 123 0 0 Left 0
WINDOW 39 24 124 Left 0
SYMATTR Value SINE(0 100 60)
SYMATTR InstName VAC1
SYMBOL voltage 32 32 R0
WINDOW 3 24 96 Left 0
WINDOW 123 0 0 Left 0
WINDOW 39 24 124 Left 0
SYMATTR Value SINE(0 100 60 0 0 -120)
SYMATTR InstName VAC2
SYMBOL voltage 208 112 R0
WINDOW 3 24 96 Left 0
WINDOW 123 0 0 Left 0
WINDOW 39 24 44 Left 2
SYMATTR Value SINE(0 100 60 0 0 120)
SYMATTR InstName VAC3
SYMBOL Misc\\SCR 432 0 R180
SYMATTR InstName U1
SYMBOL Misc\\SCR 624 0 R180
SYMATTR InstName U2
SYMBOL Misc\\SCR 832 0 R180
SYMATTR InstName U3
SYMBOL voltage 416 192 R0
WINDOW 3 24 96 Left 0
WINDOW 123 0 0 Left 0
WINDOW 39 0 0 Left 0
SYMATTR Value PULSE(0 10 {(1/60/12)+(1/60/360*AngDisp)} 1n 1n 400u {1/60})
SYMATTR InstName VG1
SYMBOL voltage 608 160 R0
WINDOW 3 24 96 Left 0
WINDOW 123 0 0 Left 0
WINDOW 39 0 0 Left 0
SYMATTR Value PULSE(0 10 {(1/60/12)+(1/60/360*AngDisp)+(1/60/3)} 1n 1n 400u {1/60})
SYMATTR InstName VG2
SYMBOL voltage 816 128 R0
WINDOW 3 24 96 Left 0
WINDOW 123 0 0 Left 0
WINDOW 39 0 0 Left 0
SYMATTR Value PULSE(0 10 {(1/60/12)+(1/60/360*AngDisp)+(1/60/3*2)} 1n 1n 400u {1/60})
SYMATTR InstName VG3
SYMBOL res 1040 -96 R0
SYMATTR InstName CARGA
SYMATTR Value 1R
SYMBOL res 0 -128 R90
WINDOW 0 0 56 VBottom 2
WINDOW 3 32 56 VTop 2
SYMATTR InstName R1
SYMATTR Value {Rserie}
SYMBOL res 160 -48 R90
WINDOW 0 0 56 VBottom 2
WINDOW 3 32 56 VTop 2
SYMATTR InstName R2
SYMATTR Value {Rserie}
SYMBOL res 320 32 R90
WINDOW 0 0 56 VBottom 2
WINDOW 3 32 56 VTop 2
SYMATTR InstName R3
SYMATTR Value {Rserie}
TEXT -144 128 Left 0 !.SUBCKT SCR 1  2  3\n*TERMINALS: A  G  K\nQpnp 6 4 1 Pfor  OFF\nQnpn 4 6 5 Nfor  OFF\nRfor 6 4 5G\nRrev 1 4  5G\nRshort  6 5 1MEG\nRlat 2 6  9.09\nRon 3 5 513.4m\nDfor 6 4 Zbrk\nDrev 1 4 Zbrk\nDgate 6 5 Zgate\n.MODEL Zbrk D(IS=3.2E-16 IBV=100U BV=400)\n.MODEL Zgate D(IS=1E-16 IBV=100U BV=10 VJ=0.3)\n.MODEL Pfor PNP(IS=5E-15 BF=6.10 CJE=5p CJC=2p TF=0.3U)\n.MODEL Nfor NPN(IS=1E-12 ISE=1E-9 BF=10.0 RC=0.45 CJE=30p CJC=2p TF=0.3U)\n.ENDS
TEXT 640 440 Left 2 !.tran {1/60*3}
TEXT 640 400 Left 2 !.param AngDisp=30 Rserie=100m
TEXT 640 360 Left 2 !.four 60 10 -1 V(A)
