Version 4
SHEET 1 1676 680
WIRE 784 -224 496 -224
WIRE 1072 -224 784 -224
WIRE 1232 -224 1072 -224
WIRE 1328 -224 1232 -224
WIRE 496 -176 496 -224
WIRE 560 -176 544 -176
WIRE 784 -176 784 -224
WIRE 848 -176 832 -176
WIRE 1072 -176 1072 -224
WIRE 1136 -176 1120 -176
WIRE 1328 -96 1328 -224
WIRE 496 -48 496 -112
WIRE 496 -48 480 -48
WIRE 784 -48 784 -112
WIRE 784 -48 768 -48
WIRE 1072 -48 1072 -112
WIRE 1072 -48 1056 -48
WIRE 496 32 496 -48
WIRE 560 32 544 32
WIRE 784 32 784 -48
WIRE 848 32 832 32
WIRE 1072 32 1072 -48
WIRE 1136 32 1120 32
WIRE 496 112 496 96
WIRE 784 112 784 96
WIRE 784 112 496 112
WIRE 1072 112 1072 96
WIRE 1072 112 784 112
WIRE 1232 112 1072 112
WIRE 1328 112 1328 -16
WIRE 1328 112 1232 112
WIRE 528 256 528 240
WIRE 528 256 496 256
WIRE 560 256 560 240
WIRE 592 256 560 256
WIRE 720 256 720 240
WIRE 720 256 688 256
WIRE 752 256 752 240
WIRE 784 256 752 256
WIRE 928 256 928 240
WIRE 928 256 896 256
WIRE 960 256 960 240
WIRE 992 256 960 256
WIRE 1136 256 1136 240
WIRE 1136 256 1104 256
WIRE 1168 256 1168 240
WIRE 1200 256 1168 256
WIRE 1328 256 1328 240
WIRE 1328 256 1296 256
WIRE 1360 256 1360 240
WIRE 1392 256 1360 256
WIRE 1536 256 1536 240
WIRE 1536 256 1504 256
WIRE 1568 256 1568 240
WIRE 1600 256 1568 256
WIRE 496 272 496 256
WIRE 592 272 592 256
WIRE 688 272 688 256
WIRE 784 272 784 256
WIRE 896 272 896 256
WIRE 992 272 992 256
WIRE 1104 272 1104 256
WIRE 1200 272 1200 256
WIRE 1296 272 1296 256
WIRE 1392 272 1392 256
WIRE 1504 272 1504 256
WIRE 1600 272 1600 256
FLAG 80 -208 A
IOPIN 80 -208 Out
FLAG 208 -64 B
IOPIN 208 -64 Out
FLAG 336 80 C
IOPIN 336 80 Out
FLAG 480 -48 A
IOPIN 480 -48 In
FLAG 768 -48 B
IOPIN 768 -48 In
FLAG 1056 -48 C
IOPIN 1056 -48 In
FLAG 528 176 G1
IOPIN 528 176 Out
FLAG 560 -176 G1
IOPIN 560 -176 Out
FLAG 848 -176 G3
IOPIN 848 -176 Out
FLAG 1136 -176 G5
IOPIN 1136 -176 Out
FLAG 336 160 0
FLAG 208 16 0
FLAG 80 -128 0
FLAG 560 32 G2
IOPIN 560 32 Out
FLAG 848 32 G4
IOPIN 848 32 Out
FLAG 1136 32 G6
IOPIN 1136 32 Out
FLAG 496 352 0
FLAG 592 352 0
FLAG 720 176 G3
IOPIN 720 176 Out
FLAG 688 352 0
FLAG 784 352 0
FLAG 928 176 G5
IOPIN 928 176 Out
FLAG 896 352 0
FLAG 992 352 0
FLAG 1136 176 G2
IOPIN 1136 176 Out
FLAG 1104 352 0
FLAG 1200 352 0
FLAG 1328 176 G4
IOPIN 1328 176 Out
FLAG 1296 352 0
FLAG 1392 352 0
FLAG 1536 176 G6
IOPIN 1536 176 Out
FLAG 1504 352 0
FLAG 1600 352 0
FLAG 1232 -224 POS
FLAG 1232 112 NEG
SYMBOL voltage 80 -224 R0
WINDOW 3 24 96 Left 0
WINDOW 123 0 0 Left 0
WINDOW 39 24 124 Left 0
SYMATTR Value SINE(0 100 60)
SYMATTR SpiceLine Rser=10m
SYMATTR InstName VAC1
SYMBOL voltage 208 -80 R0
WINDOW 3 24 96 Left 0
WINDOW 123 0 0 Left 0
WINDOW 39 24 124 Left 0
SYMATTR Value SINE(0 100 60 0 0 -120)
SYMATTR SpiceLine Rser=10m
SYMATTR InstName VAC2
SYMBOL voltage 336 64 R0
WINDOW 3 24 96 Left 0
WINDOW 123 0 0 Left 0
WINDOW 39 25 119 Left 0
SYMATTR Value SINE(0 100 60 0 0 120)
SYMATTR SpiceLine Rser=10m
SYMATTR InstName VAC3
SYMBOL Misc\\SCR 512 -112 R180
SYMATTR InstName U1
SYMBOL Misc\\SCR 800 -112 R180
SYMATTR InstName U2
SYMBOL Misc\\SCR 1088 -112 R180
SYMATTR InstName U3
SYMBOL voltage 496 256 R0
WINDOW 3 24 96 Invisible 0
WINDOW 123 0 0 Left 0
WINDOW 39 0 0 Left 0
WINDOW 0 4 12 Left 2
SYMATTR Value PULSE(0 10 {(1/60/12)+(1/60/360*AngDisp)} 1n 1n 400u {1/60})
SYMATTR InstName VG1a
SYMBOL res 1312 -112 R0
SYMATTR InstName CARGA
SYMATTR Value 2R
SYMBOL Misc\\SCR 512 96 R180
SYMATTR InstName U4
SYMBOL Misc\\SCR 800 96 R180
SYMATTR InstName U5
SYMBOL Misc\\SCR 1088 96 R180
SYMATTR InstName U6
SYMBOL voltage 592 256 R0
WINDOW 3 24 96 Invisible 0
WINDOW 123 0 0 Left 0
WINDOW 39 0 0 Left 0
WINDOW 0 7 11 Left 2
SYMATTR Value PULSE(0 10 {(1/60/12)+(1/60/360*(AngDisp+60))} 1n 1n 400u {1/60})
SYMATTR InstName VG1b
SYMBOL Digital\\or 480 208 R270
SYMATTR InstName A1
SYMATTR SpiceLine Vhigh=10
SYMBOL voltage 688 256 R0
WINDOW 3 24 96 Invisible 0
WINDOW 123 0 0 Left 0
WINDOW 39 0 0 Left 0
WINDOW 0 7 12 Left 2
SYMATTR Value PULSE(0 10 {(1/60/12)+(1/60/360*(AngDisp+120))} 1n 1n 400u {1/60})
SYMATTR InstName VG3a
SYMBOL voltage 784 256 R0
WINDOW 3 24 96 Invisible 0
WINDOW 123 0 0 Left 0
WINDOW 39 0 0 Left 0
WINDOW 0 7 11 Left 2
SYMATTR Value PULSE(0 10 {(1/60/12)+(1/60/360*(AngDisp+60+120))} 1n 1n 400u {1/60})
SYMATTR InstName VG3b
SYMBOL Digital\\or 672 208 R270
SYMATTR InstName A2
SYMATTR SpiceLine Vhigh=10
SYMBOL voltage 896 256 R0
WINDOW 3 24 96 Invisible 0
WINDOW 123 0 0 Left 0
WINDOW 39 0 0 Left 0
WINDOW 0 7 11 Left 2
SYMATTR Value PULSE(0 10 {(1/60/12)+(1/60/360*(AngDisp+240))} 1n 1n 400u {1/60})
SYMATTR InstName VG5a
SYMBOL voltage 992 256 R0
WINDOW 3 24 96 Invisible 0
WINDOW 123 0 0 Left 0
WINDOW 39 0 0 Left 0
WINDOW 0 6 11 Left 2
SYMATTR Value PULSE(0 10 {(1/60/12)+(1/60/360*(AngDisp+60+240))} 1n 1n 400u {1/60})
SYMATTR InstName VG5b
SYMBOL Digital\\or 880 208 R270
SYMATTR InstName A3
SYMATTR SpiceLine Vhigh=10
SYMBOL Digital\\or 1088 208 R270
SYMATTR InstName A4
SYMATTR SpiceLine Vhigh=10
SYMBOL Digital\\or 1280 208 R270
SYMATTR InstName A5
SYMATTR SpiceLine Vhigh=10
SYMBOL Digital\\or 1488 208 R270
SYMATTR InstName A6
SYMATTR SpiceLine Vhigh=10
SYMBOL voltage 1296 256 R0
WINDOW 3 24 96 Invisible 0
WINDOW 123 0 0 Left 0
WINDOW 39 0 0 Left 0
WINDOW 0 4 12 Left 2
SYMATTR Value PULSE(0 10 {(1/60/12)+(1/60/360*AngDisp)} 1n 1n 400u {1/60})
SYMATTR InstName VG4a
SYMBOL voltage 1600 256 R0
WINDOW 3 24 96 Invisible 0
WINDOW 123 0 0 Left 0
WINDOW 39 0 0 Left 0
WINDOW 0 7 11 Left 2
SYMATTR Value PULSE(0 10 {(1/60/12)+(1/60/360*(AngDisp+60))} 1n 1n 400u {1/60})
SYMATTR InstName VG6b
SYMBOL voltage 1504 256 R0
WINDOW 3 24 96 Invisible 0
WINDOW 123 0 0 Left 0
WINDOW 39 0 0 Left 0
WINDOW 0 7 12 Left 2
SYMATTR Value PULSE(0 10 {(1/60/12)+(1/60/360*(AngDisp+120))} 1n 1n 400u {1/60})
SYMATTR InstName VG6a
SYMBOL voltage 1104 256 R0
WINDOW 3 24 96 Invisible 0
WINDOW 123 0 0 Left 0
WINDOW 39 0 0 Left 0
WINDOW 0 7 11 Left 2
SYMATTR Value PULSE(0 10 {(1/60/12)+(1/60/360*(AngDisp+60+120))} 1n 1n 400u {1/60})
SYMATTR InstName VG2a
SYMBOL voltage 1200 256 R0
WINDOW 3 24 96 Invisible 0
WINDOW 123 0 0 Left 0
WINDOW 39 0 0 Left 0
WINDOW 0 7 11 Left 2
SYMATTR Value PULSE(0 10 {(1/60/12)+(1/60/360*(AngDisp+240))} 1n 1n 400u {1/60})
SYMATTR InstName VG2b
SYMBOL voltage 1392 256 R0
WINDOW 3 24 96 Invisible 0
WINDOW 123 0 0 Left 0
WINDOW 39 0 0 Left 0
WINDOW 0 6 11 Left 2
SYMATTR Value PULSE(0 10 {(1/60/12)+(1/60/360*(AngDisp+60+240))} 1n 1n 400u {1/60})
SYMATTR InstName VG4b
TEXT 72 184 Left 0 !.SUBCKT SCR 1  2  3\n*TERMINALS: A  G  K\nQpnp 6 4 1 Pfor  OFF\nQnpn 4 6 5 Nfor  OFF\nRfor 6 4 5G\nRrev 1 4  5G\nRshort  6 5 1MEG\nRlat 2 6  9.09\nRon 3 5 513.4m\nDfor 6 4 Zbrk\nDrev 1 4 Zbrk\nDgate 6 5 Zgate\n.MODEL Zbrk D(IS=3.2E-16 IBV=100U BV=400)\n.MODEL Zgate D(IS=1E-16 IBV=100U BV=10 VJ=0.3)\n.MODEL Pfor PNP(IS=5E-15 BF=6.10 CJE=5p CJC=2p TF=0.3U)\n.MODEL Nfor NPN(IS=1E-12 ISE=1E-9 BF=10.0 RC=0.45 CJE=30p CJC=2p TF=0.3U)\n.ENDS
TEXT 192 280 Left 2 !.tran {1/60*3}
TEXT 192 240 Left 2 !.param AngDisp=20
