Version 4
SHEET 1 880 776
WIRE 272 64 224 64
WIRE 384 64 352 64
WIRE 224 80 224 64
WIRE 384 112 384 64
WIRE 144 176 80 176
WIRE 80 192 80 176
WIRE 384 208 384 192
WIRE 80 288 80 272
FLAG 224 208 0
FLAG 80 288 0
FLAG 384 208 0
SYMBOL voltage 80 176 R0
WINDOW 123 0 0 Left 0
WINDOW 39 0 0 Left 0
SYMATTR InstName V1
SYMATTR Value PULSE(0 12 0 20u 20u 5m 10m)
SYMBOL voltage 384 96 R0
SYMATTR InstName V2
SYMATTR Value 12
SYMBOL res 368 48 R90
WINDOW 0 0 56 VBottom 2
WINDOW 3 32 56 VTop 2
SYMATTR InstName R1
SYMATTR Value 1.2
SYMBOL irf540n 160 96 R0
SYMATTR InstName U1
TEXT 64 72 Left 2 !.tran 40m
