Version 4
SHEET 1 880 680
WIRE 128 112 128 96
WIRE 128 208 128 192
FLAG 128 208 0
FLAG 128 96 OUT
SYMBOL RampSource 128 96 R0
WINDOW 0 32 32 Left 0
SYMATTR InstName U1
SYMATTR SpiceLine Amplitude=5V Frequencia=4kH
TEXT 96 232 Left 2 !.tran 5m
