Version 4
SHEET 1 880 680
WIRE 112 96 96 96
WIRE 224 96 208 96
WIRE 160 144 160 128
FLAG 160 144 0
SYMBOL SimetricSource 160 96 R0
SYMATTR InstName U1
TEXT 96 168 Left 2 !.op
