Version 4
SHEET 1 1088 680
WIRE -64 48 -144 48
WIRE 96 48 16 48
WIRE -144 64 -144 48
WIRE 96 80 96 48
WIRE 160 144 144 144
WIRE 272 144 240 144
WIRE 272 176 272 144
FLAG -144 144 0
FLAG 96 144 0
FLAG 272 256 0
SYMBOL Misc\\SCR 112 80 M0
WINDOW 3 24 54 Left 1
SYMATTR Value EC103D1
SYMATTR InstName U1
SYMBOL res 32 32 R90
WINDOW 0 0 56 VBottom 2
WINDOW 3 32 56 VTop 1
SYMATTR InstName R1
SYMATTR Value 100
SYMBOL voltage -144 48 R0
WINDOW 3 23 86 Left 1
WINDOW 123 0 0 Left 0
WINDOW 39 0 0 Left 0
SYMATTR Value SINE(0 25 60)
SYMATTR InstName V1
SYMBOL voltage 272 160 R0
WINDOW 3 27 84 Left 1
WINDOW 123 0 0 Left 0
WINDOW 39 0 0 Left 0
SYMATTR Value PULSE(0 5 {1/60/4} 1u 1u {1/60/360*15} {1/60})
SYMATTR InstName V2
SYMBOL res 256 128 R90
WINDOW 0 0 56 VBottom 2
WINDOW 3 32 56 VTop 1
SYMATTR InstName R2
SYMATTR Value 5000
TEXT 120 -112 Left 0 !.subckt EC103D1 1 2 3\n*terminals: A G K (SCR Littelfuse)\nQpnp 6 4 1 Pfor OFF\nQnpn 4 6 5 Nfor OFF\nRfor 6 4 5G\nRrev 1 4 5G\nRshort 6 5 1MEG\nRlat 2 6 9.09\nRon 3 5 513.4m\nDfor 6 4 Zbrk\nDrev 1 4 Zbrk\nDgate 6 5 Zgate\n.MODEL Zbrk D(IS=3.2E-16 IBV=100U BV=400)\n.MODEL Zgate D(IS=1E-16 IBV=100U BV=10 VJ=0.3)\n.MODEL Pfor PNP(IS=5E-15 BF=6.10 CJE=5p CJC=2p TF=0.3U)\n.MODEL Nfor NPN(IS=1E-12 ISE=1E-9 BF=10.0 RC=0.45 CJE=30p CJC=2p TF=0.3U)\n.ends EC193D1
TEXT -128 248 Left 2 !.tran {1/60*5}
