Version 4
SHEET 1 880 680
WIRE 320 64 128 64
WIRE 128 80 128 64
WIRE 320 96 320 64
WIRE 320 192 320 176
WIRE 128 224 128 208
FLAG 320 192 0
FLAG 128 224 0
SYMBOL voltage 320 80 R0
SYMATTR InstName V1
SYMATTR Value 10
SYMBOL Trimpot 112 64 R0
SYMATTR SpiceLine R=1k Percentual=25
SYMATTR InstName U1
TEXT 72 232 Left 2 !.op
